* XSpice netlist created from SPICE and liberty sources by spi2xspice.py
*SPICE netlist created from BLIF module data_selector by blif2BSpice
.subckt data_selector a_vdd a_gnd a_clk a_rst a_wBusy a_wSelec_0_ a_wSelec_1_ a_wSelec_2_ a_wSelec_3_ a_wSelec_4_ a_wSelec_5_ a_wSelec_6_ a_wSelec_7_ a_wSelec_8_ a_wSelec_9_ a_wSelec_10_ a_wSelec_11_ a_wSelec_12_ a_wSelec_13_ a_wSelec_14_ a_wSelec_15_ a_wSelec_16_ a_wSelec_17_ a_wSelec_18_ a_wSelec_19_ a_wSelec_20_ a_wSelec_21_ a_wSelec_22_ a_wSelec_23_ a_wSelec_24_ a_wSelec_25_ a_wSelec_26_ a_wSelec_27_ a_wSelec_28_ a_wSelec_29_ a_wSelec_30_ a_wSelec_31_ a_wSelec_32_ a_wSelec_33_ a_wSelec_34_ a_wSelec_35_ a_wSelec_36_ a_wSelec_37_ a_wSelec_38_ a_wSelec_39_ a_wSelec_40_ a_wSelec_41_ a_wSelec_42_ a_wSelec_43_ a_wSelec_44_ a_wSelec_45_ a_wSelec_46_ a_wSelec_47_ a_wSelec_48_ a_wSelec_49_ a_wSelec_50_ a_wSelec_51_ a_wSelec_52_ a_wSelec_53_ a_wSelec_54_ a_wSelec_55_ a_wSelec_56_ a_wSelec_57_ a_wSelec_58_ a_wSelec_59_ a_wSelec_60_ a_wSelec_61_ a_wSelec_62_ a_wSelec_63_ a_wSelec_64_ a_wSelec_65_ a_wSelec_66_ a_wSelec_67_ a_wSelec_68_ a_wSelec_69_ a_wSelec_70_ a_wSelec_71_ a_wSelec_72_ a_wSelec_73_ a_wSelec_74_ a_wSelec_75_ a_wSelec_76_ a_wSelec_77_ a_wSelec_78_ a_wSelec_79_ a_wSelec_80_ a_wSelec_81_ a_wSelec_82_ a_wSelec_83_ a_wSelec_84_ a_wSelec_85_ a_wSelec_86_ a_wSelec_87_ a_wSelec_88_ a_wSelec_89_ a_wSelec_90_ a_wSelec_91_ a_wSelec_92_ a_wSelec_93_ a_wSelec_94_ a_wSelec_95_ a_wSelec_96_ a_wSelec_97_ a_wSelec_98_ a_wSelec_99_ a_wSelec_100_ a_wSelec_101_ a_wSelec_102_ a_wSelec_103_ a_wSelec_104_ a_wSelec_105_ a_wSelec_106_ a_wSelec_107_ a_wSelec_108_ a_wSelec_109_ a_wSelec_110_ a_wSelec_111_ a_wSelec_112_ a_wSelec_113_ a_wSelec_114_ a_wSelec_115_ a_wSelec_116_ a_wSelec_117_ a_wSelec_118_ a_wSelec_119_ a_wSelec_120_ a_wSelec_121_ a_wSelec_122_ a_wSelec_123_ a_wSelec_124_ a_wSelec_125_ a_wSelec_126_ a_wSelec_127_ a_wSelec_128_ a_wSelec_129_ a_wSelec_130_ a_wSelec_131_ a_wSelec_132_ a_wSelec_133_ a_wSelec_134_ a_wSelec_135_ a_wSelec_136_ a_wSelec_137_ a_wSelec_138_ a_wSelec_139_ a_wSelec_140_ a_wSelec_141_ a_wSelec_142_ a_wSelec_143_ a_wSelec_144_ a_wSelec_145_ a_wSelec_146_ a_wSelec_147_ a_wSelec_148_ a_wSelec_149_ a_wSelec_150_ a_wSelec_151_ a_wSelec_152_ a_wSelec_153_ a_wSelec_154_ a_wSelec_155_ a_wSelec_156_ a_wSelec_157_ a_wSelec_158_ a_wSelec_159_ a_wSelec_160_ a_wSelec_161_ a_wSelec_162_ a_wSelec_163_ a_wSelec_164_ a_wSelec_165_ a_wSelec_166_ a_wSelec_167_ a_wSelec_168_ a_wSelec_169_ a_wSelec_170_ a_wSelec_171_ a_wSelec_172_ a_wSelec_173_ a_wSelec_174_ a_wSelec_175_ a_wData_0_ a_wData_1_ a_wData_2_ a_wData_3_ a_wData_4_ a_wData_5_ a_wData_6_ a_wData_7_ a_wData_8_ a_wData_9_ a_wData_10_ a_wData_11_ a_wData_12_ a_wData_13_ a_wData_14_ a_wData_15_ a_wData_16_ a_wData_17_ a_wData_18_ a_wData_19_ a_wData_20_ a_wData_21_ a_wData_22_ a_wData_23_ a_wData_24_ a_wData_25_ a_wData_26_ a_wData_27_ a_wData_28_ a_wData_29_ a_wData_30_ a_wData_31_ a_wData_32_ a_wData_33_ a_wData_34_ a_wData_35_ a_wData_36_ a_wData_37_ a_wData_38_ a_wData_39_ a_wData_40_ a_wData_41_ a_wData_42_ a_wData_43_ a_wData_44_ a_wData_45_ a_wData_46_ a_wData_47_ a_wData_48_ a_wData_49_ a_wData_50_ a_wData_51_ a_wData_52_ a_wData_53_ a_wData_54_ a_wData_55_ a_wData_56_ a_wData_57_ a_wData_58_ a_wData_59_ a_wData_60_ a_wData_61_ a_wData_62_ a_wData_63_ a_wRegs0_0_ a_wRegs0_1_ a_wRegs0_2_ a_wRegs0_3_ a_wRegs0_4_ a_wRegs0_5_ a_wRegs0_6_ a_wRegs0_7_ a_wRegs0_8_ a_wRegs0_9_ a_wRegs0_10_ a_wRegs0_11_ a_wRegs0_12_ a_wRegs0_13_ a_wRegs0_14_ a_wRegs0_15_ a_wRegs0_16_ a_wRegs0_17_ a_wRegs0_18_ a_wRegs0_19_ a_wRegs0_20_ a_wRegs0_21_ a_wRegs0_22_ a_wRegs0_23_ a_wRegs0_24_ a_wRegs0_25_ a_wRegs0_26_ a_wRegs0_27_ a_wRegs0_28_ a_wRegs0_29_ a_wRegs0_30_ a_wRegs0_31_ a_wRegs1_0_ a_wRegs1_1_ a_wRegs1_2_ a_wRegs1_3_ a_wRegs1_4_ a_wRegs1_5_ a_wRegs1_6_ a_wRegs1_7_ a_wRegs1_8_ a_wRegs1_9_ a_wRegs1_10_ a_wRegs1_11_ a_wRegs1_12_ a_wRegs1_13_ a_wRegs1_14_ a_wRegs1_15_ a_wRegs1_16_ a_wRegs1_17_ a_wRegs1_18_ a_wRegs1_19_ a_wRegs1_20_ a_wRegs1_21_ a_wRegs1_22_ a_wRegs1_23_ a_wRegs1_24_ a_wRegs1_25_ a_wRegs1_26_ a_wRegs1_27_ a_wRegs1_28_ a_wRegs1_29_ a_wRegs1_30_ a_wRegs1_31_ a_wRegs2_0_ a_wRegs2_1_ a_wRegs2_2_ a_wRegs2_3_ a_wRegs2_4_ a_wRegs2_5_ a_wRegs2_6_ a_wRegs2_7_ a_wRegs2_8_ a_wRegs2_9_ a_wRegs2_10_ a_wRegs2_11_ a_wRegs2_12_ a_wRegs2_13_ a_wRegs2_14_ a_wRegs2_15_ a_wRegs2_16_ a_wRegs2_17_ a_wRegs2_18_ a_wRegs2_19_ a_wRegs2_20_ a_wRegs2_21_ a_wRegs2_22_ a_wRegs2_23_ a_wRegs2_24_ a_wRegs2_25_ a_wRegs2_26_ a_wRegs2_27_ a_wRegs2_28_ a_wRegs2_29_ a_wRegs2_30_ a_wRegs2_31_ a_wRegs3_0_ a_wRegs3_1_ a_wRegs3_2_ a_wRegs3_3_ a_wRegs3_4_ a_wRegs3_5_ a_wRegs3_6_ a_wRegs3_7_ a_wRegs3_8_ a_wRegs3_9_ a_wRegs3_10_ a_wRegs3_11_ a_wRegs3_12_ a_wRegs3_13_ a_wRegs3_14_ a_wRegs3_15_ a_wRegs3_16_ a_wRegs3_17_ a_wRegs3_18_ a_wRegs3_19_ a_wRegs3_20_ a_wRegs3_21_ a_wRegs3_22_ a_wRegs3_23_ a_wRegs3_24_ a_wRegs3_25_ a_wRegs3_26_ a_wRegs3_27_ a_wRegs3_28_ a_wRegs3_29_ a_wRegs3_30_ a_wRegs3_31_ a_wRegs4_0_ a_wRegs4_1_ a_wRegs4_2_ a_wRegs4_3_ a_wRegs4_4_ a_wRegs4_5_ a_wRegs4_6_ a_wRegs4_7_ a_wRegs4_8_ a_wRegs4_9_ a_wRegs4_10_ a_wRegs4_11_ a_wRegs4_12_ a_wRegs4_13_ a_wRegs4_14_ a_wRegs4_15_ a_wRegs4_16_ a_wRegs4_17_ a_wRegs4_18_ a_wRegs4_19_ a_wRegs4_20_ a_wRegs4_21_ a_wRegs4_22_ a_wRegs4_23_ a_wRegs4_24_ a_wRegs4_25_ a_wRegs4_26_ a_wRegs4_27_ a_wRegs4_28_ a_wRegs4_29_ a_wRegs4_30_ a_wRegs4_31_ a_wRegs5_0_ a_wRegs5_1_ a_wRegs5_2_ a_wRegs5_3_ a_wRegs5_4_ a_wRegs5_5_ a_wRegs5_6_ a_wRegs5_7_ a_wRegs5_8_ a_wRegs5_9_ a_wRegs5_10_ a_wRegs5_11_ a_wRegs5_12_ a_wRegs5_13_ a_wRegs5_14_ a_wRegs5_15_ a_wRegs5_16_ a_wRegs5_17_ a_wRegs5_18_ a_wRegs5_19_ a_wRegs5_20_ a_wRegs5_21_ a_wRegs5_22_ a_wRegs5_23_ a_wRegs5_24_ a_wRegs5_25_ a_wRegs5_26_ a_wRegs5_27_ a_wRegs5_28_ a_wRegs5_29_ a_wRegs5_30_ a_wRegs5_31_ a_wRegs6_0_ a_wRegs6_1_ a_wRegs6_2_ a_wRegs6_3_ a_wRegs6_4_ a_wRegs6_5_ a_wRegs6_6_ a_wRegs6_7_ a_wRegs6_8_ a_wRegs6_9_ a_wRegs6_10_ a_wRegs6_11_ a_wRegs6_12_ a_wRegs6_13_ a_wRegs6_14_ a_wRegs6_15_ a_wRegs6_16_ a_wRegs6_17_ a_wRegs6_18_ a_wRegs6_19_ a_wRegs6_20_ a_wRegs6_21_ a_wRegs6_22_ a_wRegs6_23_ a_wRegs6_24_ a_wRegs6_25_ a_wRegs6_26_ a_wRegs6_27_ a_wRegs6_28_ a_wRegs6_29_ a_wRegs6_30_ a_wRegs6_31_ a_wRegs7_0_ a_wRegs7_1_ a_wRegs7_2_ a_wRegs7_3_ a_wRegs7_4_ a_wRegs7_5_ a_wRegs7_6_ a_wRegs7_7_ a_wRegs7_8_ a_wRegs7_9_ a_wRegs7_10_ a_wRegs7_11_ a_wRegs7_12_ a_wRegs7_13_ a_wRegs7_14_ a_wRegs7_15_ a_wRegs7_16_ a_wRegs7_17_ a_wRegs7_18_ a_wRegs7_19_ a_wRegs7_20_ a_wRegs7_21_ a_wRegs7_22_ a_wRegs7_23_ a_wRegs7_24_ a_wRegs7_25_ a_wRegs7_26_ a_wRegs7_27_ a_wRegs7_28_ a_wRegs7_29_ a_wRegs7_30_ a_wRegs7_31_ a_data_out_0_ a_data_out_1_ a_data_out_2_ a_data_out_3_ a_data_out_4_ a_data_out_5_ a_data_out_6_ a_data_out_7_ a_data_out_8_ a_data_out_9_ a_data_out_10_ a_data_out_11_ a_data_out_12_ a_data_out_13_ a_data_out_14_ a_data_out_15_
ABUFX2_1 [clk] clk_hier0_bF$buf5 d_lut_BUFX2
ABUFX2_2 [clk] clk_hier0_bF$buf4 d_lut_BUFX2
ABUFX2_3 [clk] clk_hier0_bF$buf3 d_lut_BUFX2
ABUFX2_4 [clk] clk_hier0_bF$buf2 d_lut_BUFX2
ABUFX2_5 [clk] clk_hier0_bF$buf1 d_lut_BUFX2
ABUFX2_6 [clk] clk_hier0_bF$buf0 d_lut_BUFX2
ABUFX2_7 [scheduler_block.scheduler.ctr_1_] scheduler_block.scheduler.ctr_1_bF$buf5 d_lut_BUFX2
ABUFX2_8 [scheduler_block.scheduler.ctr_1_] scheduler_block.scheduler.ctr_1_bF$buf4 d_lut_BUFX2
ABUFX2_9 [scheduler_block.scheduler.ctr_1_] scheduler_block.scheduler.ctr_1_bF$buf3 d_lut_BUFX2
ABUFX2_10 [scheduler_block.scheduler.ctr_1_] scheduler_block.scheduler.ctr_1_bF$buf2 d_lut_BUFX2
ABUFX2_11 [scheduler_block.scheduler.ctr_1_] scheduler_block.scheduler.ctr_1_bF$buf1 d_lut_BUFX2
ABUFX2_12 [scheduler_block.scheduler.ctr_1_] scheduler_block.scheduler.ctr_1_bF$buf0 d_lut_BUFX2
ABUFX4_1 [clk_hier0_bF$buf5] clk_bF$buf42 d_lut_BUFX4
ABUFX4_2 [clk_hier0_bF$buf4] clk_bF$buf41 d_lut_BUFX4
ABUFX4_3 [clk_hier0_bF$buf3] clk_bF$buf40 d_lut_BUFX4
ABUFX4_4 [clk_hier0_bF$buf2] clk_bF$buf39 d_lut_BUFX4
ABUFX4_5 [clk_hier0_bF$buf1] clk_bF$buf38 d_lut_BUFX4
ABUFX4_6 [clk_hier0_bF$buf0] clk_bF$buf37 d_lut_BUFX4
ABUFX4_7 [clk_hier0_bF$buf5] clk_bF$buf36 d_lut_BUFX4
ABUFX4_8 [clk_hier0_bF$buf4] clk_bF$buf35 d_lut_BUFX4
ABUFX4_9 [clk_hier0_bF$buf3] clk_bF$buf34 d_lut_BUFX4
ABUFX4_10 [clk_hier0_bF$buf2] clk_bF$buf33 d_lut_BUFX4
ABUFX4_11 [clk_hier0_bF$buf1] clk_bF$buf32 d_lut_BUFX4
ABUFX4_12 [clk_hier0_bF$buf0] clk_bF$buf31 d_lut_BUFX4
ABUFX4_13 [clk_hier0_bF$buf5] clk_bF$buf30 d_lut_BUFX4
ABUFX4_14 [clk_hier0_bF$buf4] clk_bF$buf29 d_lut_BUFX4
ABUFX4_15 [clk_hier0_bF$buf3] clk_bF$buf28 d_lut_BUFX4
ABUFX4_16 [clk_hier0_bF$buf2] clk_bF$buf27 d_lut_BUFX4
ABUFX4_17 [clk_hier0_bF$buf1] clk_bF$buf26 d_lut_BUFX4
ABUFX4_18 [clk_hier0_bF$buf0] clk_bF$buf25 d_lut_BUFX4
ABUFX4_19 [clk_hier0_bF$buf5] clk_bF$buf24 d_lut_BUFX4
ABUFX4_20 [clk_hier0_bF$buf4] clk_bF$buf23 d_lut_BUFX4
ABUFX4_21 [clk_hier0_bF$buf3] clk_bF$buf22 d_lut_BUFX4
ABUFX4_22 [clk_hier0_bF$buf2] clk_bF$buf21 d_lut_BUFX4
ABUFX4_23 [clk_hier0_bF$buf1] clk_bF$buf20 d_lut_BUFX4
ABUFX4_24 [clk_hier0_bF$buf0] clk_bF$buf19 d_lut_BUFX4
ABUFX4_25 [clk_hier0_bF$buf5] clk_bF$buf18 d_lut_BUFX4
ABUFX4_26 [clk_hier0_bF$buf4] clk_bF$buf17 d_lut_BUFX4
ABUFX4_27 [clk_hier0_bF$buf3] clk_bF$buf16 d_lut_BUFX4
ABUFX4_28 [clk_hier0_bF$buf2] clk_bF$buf15 d_lut_BUFX4
ABUFX4_29 [clk_hier0_bF$buf1] clk_bF$buf14 d_lut_BUFX4
ABUFX4_30 [clk_hier0_bF$buf0] clk_bF$buf13 d_lut_BUFX4
ABUFX4_31 [clk_hier0_bF$buf5] clk_bF$buf12 d_lut_BUFX4
ABUFX4_32 [clk_hier0_bF$buf4] clk_bF$buf11 d_lut_BUFX4
ABUFX4_33 [clk_hier0_bF$buf3] clk_bF$buf10 d_lut_BUFX4
ABUFX4_34 [clk_hier0_bF$buf2] clk_bF$buf9 d_lut_BUFX4
ABUFX4_35 [clk_hier0_bF$buf1] clk_bF$buf8 d_lut_BUFX4
ABUFX4_36 [clk_hier0_bF$buf0] clk_bF$buf7 d_lut_BUFX4
ABUFX4_37 [clk_hier0_bF$buf5] clk_bF$buf6 d_lut_BUFX4
ABUFX4_38 [clk_hier0_bF$buf4] clk_bF$buf5 d_lut_BUFX4
ABUFX4_39 [clk_hier0_bF$buf3] clk_bF$buf4 d_lut_BUFX4
ABUFX4_40 [clk_hier0_bF$buf2] clk_bF$buf3 d_lut_BUFX4
ABUFX4_41 [clk_hier0_bF$buf1] clk_bF$buf2 d_lut_BUFX4
ABUFX4_42 [clk_hier0_bF$buf0] clk_bF$buf1 d_lut_BUFX4
ABUFX4_43 [clk_hier0_bF$buf5] clk_bF$buf0 d_lut_BUFX4
ABUFX2_13 [scheduler_block.scheduler.ctr_0_] scheduler_block.scheduler.ctr_0_bF$buf5 d_lut_BUFX2
ABUFX2_14 [scheduler_block.scheduler.ctr_0_] scheduler_block.scheduler.ctr_0_bF$buf4 d_lut_BUFX2
ABUFX2_15 [scheduler_block.scheduler.ctr_0_] scheduler_block.scheduler.ctr_0_bF$buf3 d_lut_BUFX2
ABUFX2_16 [scheduler_block.scheduler.ctr_0_] scheduler_block.scheduler.ctr_0_bF$buf2 d_lut_BUFX2
ABUFX2_17 [scheduler_block.scheduler.ctr_0_] scheduler_block.scheduler.ctr_0_bF$buf1 d_lut_BUFX2
ABUFX2_18 [scheduler_block.scheduler.ctr_0_] scheduler_block.scheduler.ctr_0_bF$buf0 d_lut_BUFX2
ABUFX2_19 [_8701_] _8701__bF$buf3 d_lut_BUFX2
ABUFX2_20 [_8701_] _8701__bF$buf2 d_lut_BUFX2
ABUFX2_21 [_8701_] _8701__bF$buf1 d_lut_BUFX2
ABUFX2_22 [_8701_] _8701__bF$buf0 d_lut_BUFX2
ABUFX2_23 [wBusy] wBusy_bF$buf4 d_lut_BUFX2
ABUFX2_24 [wBusy] wBusy_bF$buf3 d_lut_BUFX2
ABUFX2_25 [wBusy] wBusy_bF$buf2 d_lut_BUFX2
ABUFX2_26 [wBusy] wBusy_bF$buf1 d_lut_BUFX2
ABUFX2_27 [wBusy] wBusy_bF$buf0 d_lut_BUFX2
ABUFX2_28 [rst] rst_bF$buf3 d_lut_BUFX2
ABUFX2_29 [rst] rst_bF$buf2 d_lut_BUFX2
ABUFX2_30 [rst] rst_bF$buf1 d_lut_BUFX2
ABUFX2_31 [rst] rst_bF$buf0 d_lut_BUFX2
ANAND2X1_1 [input_selector_block.input_selector_i_0_.input_selector_j_0_.input_selector.chunksRegs_46__3_ _701_] _994_ d_lut_NAND2X1
ANAND2X1_2 [input_selector_block.input_selector_i_0_.input_selector_j_0_.input_selector.chunksRegs_41__3_ _674_] _995_ d_lut_NAND2X1
ANAND2X1_3 [_994_ _995_] _996_ d_lut_NAND2X1
AINVX1_1 [input_selector_block.input_selector_i_0_.input_selector_j_0_.input_selector.chunksRegs_52__3_] _997_ d_lut_INVX1
ANAND2X1_4 [input_selector_block.input_selector_i_0_.input_selector_j_0_.input_selector.chunksRegs_40__3_ _673_] _998_ d_lut_NAND2X1
AOAI21X1_1 [_997_ _626_ _998_] _999_ d_lut_OAI21X1
ANOR2X1_1 [_996_ _999_] _1000_ d_lut_NOR2X1
ANAND3X1_1 [_990_ _993_ _1000_] _1001_ d_lut_NAND3X1
ANOR3X1_1 [_988_ _978_ _1001_] _1002_ d_lut_NOR3X1
AINVX1_2 [input_selector_block.input_selector_i_0_.input_selector_j_0_.input_selector.chunksRegs_57__3_] _1003_ d_lut_INVX1
ANAND2X1_5 [input_selector_block.input_selector_i_0_.input_selector_j_0_.input_selector.chunksRegs_63__3_ _589_] _1004_ d_lut_NAND2X1
AOAI21X1_2 [_594_ _1003_ _1004_] _1005_ d_lut_OAI21X1
AAOI21X1_1 [input_selector_block.input_selector_i_0_.input_selector_j_0_.input_selector.chunksRegs_1__3_ _569_ _1005_] _1006_ d_lut_AOI21X1
AINVX1_3 [input_selector_block.input_selector_i_0_.input_selector_j_0_.input_selector.chunksRegs_58__3_] _1007_ d_lut_INVX1
AINVX1_4 [input_selector_block.input_selector_i_0_.input_selector_j_0_.input_selector.chunksRegs_2__3_] _1008_ d_lut_INVX1
AOAI22X1_1 [_913_ _1008_ _1007_ _564_] _1009_ d_lut_OAI22X1
AINVX1_5 [input_selector_block.input_selector_i_0_.input_selector_j_0_.input_selector.chunksRegs_37__3_] _1010_ d_lut_INVX1
ANAND2X1_6 [input_selector_block.input_selector_i_0_.input_selector_j_0_.input_selector.chunksRegs_56__3_ _709_] _1011_ d_lut_NAND2X1
AOAI21X1_3 [_574_ _1010_ _1011_] _1012_ d_lut_OAI21X1
ANOR2X1_2 [_1012_ _1009_] _1013_ d_lut_NOR2X1
AINVX1_6 [input_selector_block.input_selector_i_0_.input_selector_j_0_.input_selector.chunksRegs_49__3_] _1014_ d_lut_INVX1
AINVX1_7 [input_selector_block.input_selector_i_0_.input_selector_j_0_.input_selector.chunksRegs_30__3_] _1015_ d_lut_INVX1
AOAI22X1_2 [_661_ _1015_ _1014_ _662_] _1016_ d_lut_OAI22X1
AINVX1_8 [input_selector_block.input_selector_i_0_.input_selector_j_0_.input_selector.chunksRegs_28__3_] _1017_ d_lut_INVX1
ANAND2X1_7 [input_selector_block.input_selector_i_0_.input_selector_j_0_.input_selector.chunksRegs_12__3_ _708_] _1018_ d_lut_NAND2X1
AOAI21X1_4 [_1017_ _644_ _1018_] _1019_ d_lut_OAI21X1
ANOR2X1_3 [_1019_ _1016_] _1020_ d_lut_NOR2X1
ANAND3X1_2 [_1006_ _1020_ _1013_] _1021_ d_lut_NAND3X1
AAOI22X1_1 [input_selector_block.input_selector_i_0_.input_selector_j_0_.input_selector.chunksRegs_0__3_ _666_ _667_ input_selector_block.input_selector_i_0_.input_selector_j_0_.input_selector.chunksRegs_61__3_] _1022_ d_lut_AOI22X1
AAOI22X1_2 [_669_ input_selector_block.input_selector_i_0_.input_selector_j_0_.input_selector.chunksRegs_62__3_ input_selector_block.input_selector_i_0_.input_selector_j_0_.input_selector.chunksRegs_59__3_ _670_] _1023_ d_lut_AOI22X1
ANAND2X1_8 [_1022_ _1023_] _1024_ d_lut_NAND2X1
AAOI22X1_3 [input_selector_block.input_selector_i_0_.input_selector_j_0_.input_selector.chunksRegs_31__3_ _677_ _676_ input_selector_block.input_selector_i_0_.input_selector_j_0_.input_selector.chunksRegs_29__3_] _1025_ d_lut_AOI22X1
AAOI22X1_4 [_620_ input_selector_block.input_selector_i_0_.input_selector_j_0_.input_selector.chunksRegs_45__3_ input_selector_block.input_selector_i_0_.input_selector_j_0_.input_selector.chunksRegs_42__3_ _627_] _1026_ d_lut_AOI22X1
ANAND2X1_9 [_1025_ _1026_] _1027_ d_lut_NAND2X1
ANOR2X1_4 [_1024_ _1027_] _1028_ d_lut_NOR2X1
AAOI22X1_5 [_681_ input_selector_block.input_selector_i_0_.input_selector_j_0_.input_selector.chunksRegs_13__3_ input_selector_block.input_selector_i_0_.input_selector_j_0_.input_selector.chunksRegs_14__3_ _682_] _1029_ d_lut_AOI22X1
AAOI22X1_6 [input_selector_block.input_selector_i_0_.input_selector_j_0_.input_selector.chunksRegs_48__3_ _917_ _684_ input_selector_block.input_selector_i_0_.input_selector_j_0_.input_selector.chunksRegs_11__3_] _1030_ d_lut_AOI22X1
ANAND2X1_10 [_1030_ _1029_] _1031_ d_lut_NAND2X1
AAOI22X1_7 [input_selector_block.input_selector_i_0_.input_selector_j_0_.input_selector.chunksRegs_15__3_ _688_ _689_ input_selector_block.input_selector_i_0_.input_selector_j_0_.input_selector.chunksRegs_34__3_] _1032_ d_lut_AOI22X1
AAOI22X1_8 [_691_ input_selector_block.input_selector_i_0_.input_selector_j_0_.input_selector.chunksRegs_32__3_ input_selector_block.input_selector_i_0_.input_selector_j_0_.input_selector.chunksRegs_44__3_ _692_] _1033_ d_lut_AOI22X1
ANAND2X1_11 [_1033_ _1032_] _1034_ d_lut_NAND2X1
ANOR2X1_5 [_1031_ _1034_] _1035_ d_lut_NOR2X1
ANAND2X1_12 [_1035_ _1028_] _1036_ d_lut_NAND2X1
AAOI22X1_9 [input_selector_block.input_selector_i_0_.input_selector_j_0_.input_selector.chunksRegs_50__3_ _698_ _599_ input_selector_block.input_selector_i_0_.input_selector_j_0_.input_selector.chunksRegs_26__3_] _1037_ d_lut_AOI22X1
AAOI22X1_10 [_622_ input_selector_block.input_selector_i_0_.input_selector_j_0_.input_selector.chunksRegs_43__3_ input_selector_block.input_selector_i_0_.input_selector_j_0_.input_selector.chunksRegs_36__3_ _700_] _1038_ d_lut_AOI22X1
ANAND2X1_13 [_1037_ _1038_] _1039_ d_lut_NAND2X1
AAOI22X1_11 [input_selector_block.input_selector_i_0_.input_selector_j_0_.input_selector.chunksRegs_55__3_ _706_ _704_ input_selector_block.input_selector_i_0_.input_selector_j_0_.input_selector.chunksRegs_25__3_] _1040_ d_lut_AOI22X1
AAOI22X1_12 [input_selector_block.input_selector_i_0_.input_selector_j_0_.input_selector.chunksRegs_4__3_ _636_ _685_ input_selector_block.input_selector_i_0_.input_selector_j_0_.input_selector.chunksRegs_18__3_] _1041_ d_lut_AOI22X1
ANAND2X1_14 [_1041_ _1040_] _1042_ d_lut_NAND2X1
ANOR2X1_6 [_1042_ _1039_] _1043_ d_lut_NOR2X1
AAOI22X1_13 [input_selector_block.input_selector_i_0_.input_selector_j_0_.input_selector.chunksRegs_8__3_ _713_ _714_ input_selector_block.input_selector_i_0_.input_selector_j_0_.input_selector.chunksRegs_53__3_] _1044_ d_lut_AOI22X1
ANAND2X1_15 [input_selector_block.input_selector_i_0_.input_selector_j_0_.input_selector.chunksRegs_54__3_ _716_] _1045_ d_lut_NAND2X1
ANAND2X1_16 [input_selector_block.input_selector_i_0_.input_selector_j_0_.input_selector.chunksRegs_33__3_ _718_] _1046_ d_lut_NAND2X1
ANAND3X1_3 [_1045_ _1046_ _1044_] _1047_ d_lut_NAND3X1
AAOI22X1_14 [input_selector_block.input_selector_i_0_.input_selector_j_0_.input_selector.chunksRegs_60__3_ _722_ _721_ input_selector_block.input_selector_i_0_.input_selector_j_0_.input_selector.chunksRegs_9__3_] _1048_ d_lut_AOI22X1
AAOI22X1_15 [input_selector_block.input_selector_i_0_.input_selector_j_0_.input_selector.chunksRegs_51__3_ _725_ _724_ input_selector_block.input_selector_i_0_.input_selector_j_0_.input_selector.chunksRegs_10__3_] _1049_ d_lut_AOI22X1
ANAND2X1_17 [_1048_ _1049_] _1050_ d_lut_NAND2X1
ANOR2X1_7 [_1050_ _1047_] _1051_ d_lut_NOR2X1
ANAND2X1_18 [_1043_ _1051_] _1052_ d_lut_NAND2X1
ANOR3X1_2 [_1036_ _1021_ _1052_] _1053_ d_lut_NOR3X1
ANAND2X1_19 [wData_59_ _755_] _1054_ d_lut_NAND2X1
AOAI21X1_5 [_539_ wBusy_bF$buf4 _1054_] _1055_ d_lut_OAI21X1
ANAND2X1_20 [wData_7_ _746_] _1056_ d_lut_NAND2X1
ANAND2X1_21 [wData_55_ _756_] _1057_ d_lut_NAND2X1
AAOI22X1_16 [wData_63_ _758_ _748_ wData_31_] _1058_ d_lut_AOI22X1
ANAND3X1_4 [_1056_ _1057_ _1058_] _1059_ d_lut_NAND3X1
AOR2X2_1 [_1059_ _1055_] _1060_ d_lut_OR2X2
AINVX1_9 [wData_51_] _1061_ d_lut_INVX1
ANAND2X1_22 [wData_47_ _759_] _1062_ d_lut_NAND2X1
AOAI21X1_6 [_1061_ _771_ _1062_] _1063_ d_lut_OAI21X1
AAOI21X1_2 [wData_3_ _766_ _1063_] _1064_ d_lut_AOI21X1
AAOI22X1_17 [_772_ wData_11_ wData_15_ _773_] _1065_ d_lut_AOI22X1
AAOI22X1_18 [_735_ wData_23_ wData_27_ _742_] _1066_ d_lut_AOI22X1
AAND2X2_1 [_1065_ _1066_] _1067_ d_lut_AND2X2
ANAND2X1_23 [wData_39_ _764_] _1068_ d_lut_NAND2X1
ANAND2X1_24 [wData_43_ _762_] _1069_ d_lut_NAND2X1
ANAND2X1_25 [_1068_ _1069_] _1070_ d_lut_NAND2X1
ANAND2X1_26 [wData_19_ _738_] _1071_ d_lut_NAND2X1
ANAND2X1_27 [wData_35_ _752_] _1072_ d_lut_NAND2X1
ANAND2X1_28 [_1071_ _1072_] _1073_ d_lut_NAND2X1
ANOR2X1_8 [_1070_ _1073_] _1074_ d_lut_NOR2X1
ANAND3X1_5 [_1067_ _1064_ _1074_] _1075_ d_lut_NAND3X1
ANOR2X1_9 [_1060_ _1075_] _1076_ d_lut_NOR2X1
AAOI21X1_3 [_1002_ _1053_ _1076_] input_selector_block.input_selector_i_0_.input_selector_j_1_.input_selector.r_3_ d_lut_AOI21X1
AINVX1_10 [wSelec_22_] _1077_ d_lut_INVX1
ANOR2X1_10 [wBusy_bF$buf3 _1077_] _1078_ d_lut_NOR2X1
AINVX1_11 [_1078_] _1079_ d_lut_INVX1
AINVX1_12 [wSelec_32_] _1080_ d_lut_INVX1
ANAND2X1_29 [wSelec_31_ _1080_] _1081_ d_lut_NAND2X1
AINVX2_1 [_1081_] _1082_ d_lut_INVX2
AOR2X2_2 [wSelec_28_ wSelec_27_] _1083_ d_lut_OR2X2
AINVX1_13 [wSelec_30_] _1084_ d_lut_INVX1
ANAND2X1_30 [wSelec_29_ _1084_] _1085_ d_lut_NAND2X1
ANOR2X1_11 [_1083_ _1085_] _1086_ d_lut_NOR2X1
AAND2X2_2 [_1086_ _1082_] _1087_ d_lut_AND2X2
AAOI21X1_4 [input_selector_block.input_selector_i_0_.input_selector_j_0_.input_selector.chunksRegs_20__0_ _1087_ _1079_] _1088_ d_lut_AOI21X1
AINVX1_14 [wSelec_28_] _1089_ d_lut_INVX1
ANAND2X1_31 [wSelec_27_ _1089_] _1090_ d_lut_NAND2X1
AOR2X2_3 [wSelec_29_ wSelec_30_] _1091_ d_lut_OR2X2
ANOR2X1_12 [_1091_ _1090_] _1092_ d_lut_NOR2X1
ANAND2X1_32 [_1082_ _1092_] _1093_ d_lut_NAND2X1
AINVX1_15 [_1093_] _1094_ d_lut_INVX1
AINVX1_16 [wSelec_27_] _1095_ d_lut_INVX1
ANAND2X1_33 [wSelec_28_ _1095_] _1096_ d_lut_NAND2X1
AINVX1_17 [wSelec_29_] _1097_ d_lut_INVX1
ANAND2X1_34 [wSelec_30_ _1097_] _1098_ d_lut_NAND2X1
ANOR2X1_13 [_1096_ _1098_] _1099_ d_lut_NOR2X1
ANAND2X1_35 [wSelec_31_ wSelec_32_] _1100_ d_lut_NAND2X1
AINVX1_18 [_1100_] _1101_ d_lut_INVX1
ANAND2X1_36 [_1101_ _1099_] _1102_ d_lut_NAND2X1
AINVX1_19 [_1102_] _1103_ d_lut_INVX1
AAOI22X1_19 [_1094_ input_selector_block.input_selector_i_0_.input_selector_j_0_.input_selector.chunksRegs_17__0_ input_selector_block.input_selector_i_0_.input_selector_j_0_.input_selector.chunksRegs_58__0_ _1103_] _1104_ d_lut_AOI22X1
AOR2X2_4 [_1090_ _1091_] _1105_ d_lut_OR2X2
AOR2X2_5 [wSelec_31_ wSelec_32_] _1106_ d_lut_OR2X2
ANOR2X1_14 [_1106_ _1105_] _1107_ d_lut_NOR2X1
ANOR2X1_15 [_1085_ _1090_] _1108_ d_lut_NOR2X1
AINVX1_20 [wSelec_31_] _1109_ d_lut_INVX1
ANAND2X1_37 [wSelec_32_ _1109_] _1110_ d_lut_NAND2X1
AINVX2_2 [_1110_] _1111_ d_lut_INVX2
ANAND2X1_38 [_1111_ _1108_] _1112_ d_lut_NAND2X1
AINVX1_21 [_1112_] _1113_ d_lut_INVX1
AAOI22X1_20 [input_selector_block.input_selector_i_0_.input_selector_j_0_.input_selector.chunksRegs_1__0_ _1107_ _1113_ input_selector_block.input_selector_i_0_.input_selector_j_0_.input_selector.chunksRegs_37__0_] _1114_ d_lut_AOI22X1
ANAND3X1_6 [_1088_ _1114_ _1104_] _1115_ d_lut_NAND3X1
ANOR2X1_16 [wSelec_28_ wSelec_27_] _1116_ d_lut_NOR2X1
ANOR2X1_17 [wSelec_29_ wSelec_30_] _1117_ d_lut_NOR2X1
ANAND2X1_39 [_1116_ _1117_] _1118_ d_lut_NAND2X1
ANOR2X1_18 [_1081_ _1118_] _1119_ d_lut_NOR2X1
ANAND2X1_40 [wSelec_28_ wSelec_27_] _1120_ d_lut_NAND2X1
ANOR3X1_3 [_1091_ _1120_ _1081_] _1121_ d_lut_NOR3X1
AAOI22X1_21 [input_selector_block.input_selector_i_0_.input_selector_j_0_.input_selector.chunksRegs_19__0_ _1121_ _1119_ input_selector_block.input_selector_i_0_.input_selector_j_0_.input_selector.chunksRegs_16__0_] _1122_ d_lut_AOI22X1
AINVX1_22 [_1106_] _1123_ d_lut_INVX1
ANOR2X1_19 [_1091_ _1096_] _1124_ d_lut_NOR2X1
AAND2X2_3 [_1124_ _1123_] _1125_ d_lut_AND2X2
ANAND2X1_41 [wSelec_29_ wSelec_30_] _1126_ d_lut_NAND2X1
ANOR3X1_4 [_1100_ _1120_ _1126_] _1127_ d_lut_NOR3X1
AAOI22X1_22 [input_selector_block.input_selector_i_0_.input_selector_j_0_.input_selector.chunksRegs_63__0_ _1127_ _1125_ input_selector_block.input_selector_i_0_.input_selector_j_0_.input_selector.chunksRegs_2__0_] _1128_ d_lut_AOI22X1
AINVX1_23 [input_selector_block.input_selector_i_0_.input_selector_j_0_.input_selector.chunksRegs_47__0_] _1129_ d_lut_INVX1
AINVX1_24 [input_selector_block.input_selector_i_0_.input_selector_j_0_.input_selector.chunksRegs_57__0_] _1130_ d_lut_INVX1
ANOR2X1_20 [_1090_ _1098_] _1131_ d_lut_NOR2X1
ANAND2X1_42 [_1101_ _1131_] _1132_ d_lut_NAND2X1
ANOR2X1_21 [_1120_ _1126_] _1133_ d_lut_NOR2X1
ANAND2X1_43 [_1133_ _1111_] _1134_ d_lut_NAND2X1
AOAI22X1_3 [_1129_ _1134_ _1132_ _1130_] _1135_ d_lut_OAI22X1
AINVX1_25 [input_selector_block.input_selector_i_0_.input_selector_j_0_.input_selector.chunksRegs_39__0_] _1136_ d_lut_INVX1
ANOR3X1_5 [_1081_ _1096_ _1098_] _1137_ d_lut_NOR3X1
ANAND2X1_44 [input_selector_block.input_selector_i_0_.input_selector_j_0_.input_selector.chunksRegs_26__0_ _1137_] _1138_ d_lut_NAND2X1
ANOR2X1_22 [_1120_ _1085_] _1139_ d_lut_NOR2X1
ANAND2X1_45 [_1111_ _1139_] _1140_ d_lut_NAND2X1
AOAI21X1_7 [_1136_ _1140_ _1138_] _1141_ d_lut_OAI21X1
ANOR2X1_23 [_1135_ _1141_] _1142_ d_lut_NOR2X1
ANAND3X1_7 [_1122_ _1128_ _1142_] _1143_ d_lut_NAND3X1
AINVX1_26 [input_selector_block.input_selector_i_0_.input_selector_j_0_.input_selector.chunksRegs_24__0_] _1144_ d_lut_INVX1
AINVX1_27 [input_selector_block.input_selector_i_0_.input_selector_j_0_.input_selector.chunksRegs_22__0_] _1145_ d_lut_INVX1
ANOR2X1_24 [_1085_ _1096_] _1146_ d_lut_NOR2X1
ANAND2X1_46 [_1082_ _1146_] _1147_ d_lut_NAND2X1
ANOR2X1_25 [_1083_ _1098_] _1148_ d_lut_NOR2X1
ANAND2X1_47 [_1082_ _1148_] _1149_ d_lut_NAND2X1
AOAI22X1_4 [_1149_ _1144_ _1145_ _1147_] _1150_ d_lut_OAI22X1
AINVX1_28 [input_selector_block.input_selector_i_0_.input_selector_j_0_.input_selector.chunksRegs_35__0_] _1151_ d_lut_INVX1
AINVX1_29 [input_selector_block.input_selector_i_0_.input_selector_j_0_.input_selector.chunksRegs_38__0_] _1152_ d_lut_INVX1
ANAND2X1_48 [_1111_ _1146_] _1153_ d_lut_NAND2X1
ANOR2X1_26 [_1120_ _1091_] _1154_ d_lut_NOR2X1
ANAND2X1_49 [_1111_ _1154_] _1155_ d_lut_NAND2X1
AOAI22X1_5 [_1151_ _1155_ _1153_ _1152_] _1156_ d_lut_OAI22X1
ANOR2X1_27 [_1156_ _1150_] _1157_ d_lut_NOR2X1
ANOR3X1_6 [_1090_ _1126_ _1110_] _1158_ d_lut_NOR3X1
ANAND2X1_50 [input_selector_block.input_selector_i_0_.input_selector_j_0_.input_selector.chunksRegs_45__0_ _1158_] _1159_ d_lut_NAND2X1
ANOR3X1_7 [_1098_ _1120_ _1110_] _1160_ d_lut_NOR3X1
ANAND2X1_51 [input_selector_block.input_selector_i_0_.input_selector_j_0_.input_selector.chunksRegs_43__0_ _1160_] _1161_ d_lut_NAND2X1
ANAND2X1_52 [_1159_ _1161_] _1162_ d_lut_NAND2X1
AINVX1_30 [input_selector_block.input_selector_i_0_.input_selector_j_0_.input_selector.chunksRegs_52__0_] _1163_ d_lut_INVX1
ANAND2X1_53 [_1101_ _1086_] _1164_ d_lut_NAND2X1
ANOR3X1_8 [_1096_ _1098_ _1110_] _1165_ d_lut_NOR3X1
ANAND2X1_54 [input_selector_block.input_selector_i_0_.input_selector_j_0_.input_selector.chunksRegs_42__0_ _1165_] _1166_ d_lut_NAND2X1
AOAI21X1_8 [_1163_ _1164_ _1166_] _1167_ d_lut_OAI21X1
ANOR2X1_28 [_1162_ _1167_] _1168_ d_lut_NOR2X1
ANAND2X1_55 [_1157_ _1168_] _1169_ d_lut_NAND2X1
ANOR3X1_9 [_1115_ _1169_ _1143_] _1170_ d_lut_NOR3X1
ANAND2X1_56 [_1082_ _1139_] _1171_ d_lut_NAND2X1
AINVX1_31 [_1171_] _1172_ d_lut_INVX1
AINVX1_32 [input_selector_block.input_selector_i_0_.input_selector_j_0_.input_selector.chunksRegs_6__0_] _1173_ d_lut_INVX1
ANOR3X1_10 [_1083_ _1106_ _1085_] _1174_ d_lut_NOR3X1
ANAND2X1_57 [input_selector_block.input_selector_i_0_.input_selector_j_0_.input_selector.chunksRegs_4__0_ _1174_] _1175_ d_lut_NAND2X1
ANAND2X1_58 [_1123_ _1146_] _1176_ d_lut_NAND2X1
AOAI21X1_9 [_1176_ _1173_ _1175_] _1177_ d_lut_OAI21X1
AAOI21X1_5 [input_selector_block.input_selector_i_0_.input_selector_j_0_.input_selector.chunksRegs_23__0_ _1172_ _1177_] _1178_ d_lut_AOI21X1
AINVX1_33 [input_selector_block.input_selector_i_0_.input_selector_j_0_.input_selector.chunksRegs_5__0_] _1179_ d_lut_INVX1
AINVX1_34 [input_selector_block.input_selector_i_0_.input_selector_j_0_.input_selector.chunksRegs_28__0_] _1180_ d_lut_INVX1
ANOR2X1_29 [_1126_ _1083_] _1181_ d_lut_NOR2X1
ANAND2X1_59 [_1082_ _1181_] _1182_ d_lut_NAND2X1
ANAND2X1_60 [_1123_ _1108_] _1183_ d_lut_NAND2X1
AOAI22X1_6 [_1180_ _1182_ _1183_ _1179_] _1184_ d_lut_OAI22X1
AINVX1_35 [input_selector_block.input_selector_i_0_.input_selector_j_0_.input_selector.chunksRegs_3__0_] _1185_ d_lut_INVX1
AINVX1_36 [input_selector_block.input_selector_i_0_.input_selector_j_0_.input_selector.chunksRegs_21__0_] _1186_ d_lut_INVX1
ANAND2X1_61 [_1082_ _1108_] _1187_ d_lut_NAND2X1
ANAND2X1_62 [_1123_ _1154_] _1188_ d_lut_NAND2X1
AOAI22X1_7 [_1185_ _1188_ _1187_ _1186_] _1189_ d_lut_OAI22X1
ANOR2X1_30 [_1184_ _1189_] _1190_ d_lut_NOR2X1
AINVX1_37 [input_selector_block.input_selector_i_0_.input_selector_j_0_.input_selector.chunksRegs_48__0_] _1191_ d_lut_INVX1
ANOR3X1_11 [_1106_ _1120_ _1085_] _1192_ d_lut_NOR3X1
ANAND2X1_63 [input_selector_block.input_selector_i_0_.input_selector_j_0_.input_selector.chunksRegs_7__0_ _1192_] _1193_ d_lut_NAND2X1
AOR2X2_6 [_1118_ _1100_] _1194_ d_lut_OR2X2
AOAI21X1_10 [_1191_ _1194_ _1193_] _1195_ d_lut_OAI21X1
AINVX1_38 [input_selector_block.input_selector_i_0_.input_selector_j_0_.input_selector.chunksRegs_49__0_] _1196_ d_lut_INVX1
AINVX1_39 [input_selector_block.input_selector_i_0_.input_selector_j_0_.input_selector.chunksRegs_30__0_] _1197_ d_lut_INVX1
ANOR2X1_31 [_1126_ _1096_] _1198_ d_lut_NOR2X1
ANAND2X1_64 [_1082_ _1198_] _1199_ d_lut_NAND2X1
ANAND2X1_65 [_1101_ _1092_] _1200_ d_lut_NAND2X1
AOAI22X1_8 [_1199_ _1197_ _1196_ _1200_] _1201_ d_lut_OAI22X1
ANOR2X1_32 [_1195_ _1201_] _1202_ d_lut_NOR2X1
ANAND3X1_8 [_1178_ _1202_ _1190_] _1203_ d_lut_NAND3X1
ANOR3X1_12 [_1083_ _1091_ _1106_] _1204_ d_lut_NOR3X1
ANOR3X1_13 [_1100_ _1126_ _1090_] _1205_ d_lut_NOR3X1
AAOI22X1_23 [input_selector_block.input_selector_i_0_.input_selector_j_0_.input_selector.chunksRegs_0__0_ _1204_ _1205_ input_selector_block.input_selector_i_0_.input_selector_j_0_.input_selector.chunksRegs_61__0_] _1206_ d_lut_AOI22X1
ANOR3X1_14 [_1100_ _1126_ _1096_] _1207_ d_lut_NOR3X1
ANOR3X1_15 [_1100_ _1120_ _1098_] _1208_ d_lut_NOR3X1
AAOI22X1_24 [_1207_ input_selector_block.input_selector_i_0_.input_selector_j_0_.input_selector.chunksRegs_62__0_ input_selector_block.input_selector_i_0_.input_selector_j_0_.input_selector.chunksRegs_59__0_ _1208_] _1209_ d_lut_AOI22X1
ANAND2X1_66 [_1206_ _1209_] _1210_ d_lut_NAND2X1
ANOR3X1_16 [_1098_ _1083_ _1110_] _1211_ d_lut_NOR3X1
ANOR3X1_17 [_1090_ _1098_ _1110_] _1212_ d_lut_NOR3X1
AAOI22X1_25 [_1211_ input_selector_block.input_selector_i_0_.input_selector_j_0_.input_selector.chunksRegs_40__0_ input_selector_block.input_selector_i_0_.input_selector_j_0_.input_selector.chunksRegs_41__0_ _1212_] _1213_ d_lut_AOI22X1
ANOR3X1_18 [_1081_ _1126_ _1090_] _1214_ d_lut_NOR3X1
ANOR3X1_19 [_1120_ _1126_ _1081_] _1215_ d_lut_NOR3X1
AAOI22X1_26 [input_selector_block.input_selector_i_0_.input_selector_j_0_.input_selector.chunksRegs_31__0_ _1215_ _1214_ input_selector_block.input_selector_i_0_.input_selector_j_0_.input_selector.chunksRegs_29__0_] _1216_ d_lut_AOI22X1
ANAND2X1_67 [_1216_ _1213_] _1217_ d_lut_NAND2X1