*SPICE netlist created from BLIF module data_selector by blif2BSpice
.include /usr/share/qflow/tech/osu018/osu018_stdcells.sp
.subckt data_selector vdd gnd clk rst wBusy wSelec<0> wSelec<1> wSelec<2> wSelec<3> wSelec<4> wSelec<5> wSelec<6> wSelec<7> wSelec<8> wSelec<9> wSelec<10> wSelec<11> wSelec<12> wSelec<13> wSelec<14> wSelec<15> wSelec<16> wSelec<17> wSelec<18> wSelec<19> wSelec<20> wSelec<21> wSelec<22> wSelec<23> wSelec<24> wSelec<25> wSelec<26> wSelec<27> wSelec<28> wSelec<29> wSelec<30> wSelec<31> wSelec<32> wSelec<33> wSelec<34> wSelec<35> wSelec<36> wSelec<37> wSelec<38> wSelec<39> wSelec<40> wSelec<41> wSelec<42> wSelec<43> wSelec<44> wSelec<45> wSelec<46> wSelec<47> wSelec<48> wSelec<49> wSelec<50> wSelec<51> wSelec<52> wSelec<53> wSelec<54> wSelec<55> wSelec<56> wSelec<57> wSelec<58> wSelec<59> wSelec<60> wSelec<61> wSelec<62> wSelec<63> wSelec<64> wSelec<65> wSelec<66> wSelec<67> wSelec<68> wSelec<69> wSelec<70> wSelec<71> wSelec<72> wSelec<73> wSelec<74> wSelec<75> wSelec<76> wSelec<77> wSelec<78> wSelec<79> wSelec<80> wSelec<81> wSelec<82> wSelec<83> wSelec<84> wSelec<85> wSelec<86> wSelec<87> wSelec<88> wSelec<89> wSelec<90> wSelec<91> wSelec<92> wSelec<93> wSelec<94> wSelec<95> wSelec<96> wSelec<97> wSelec<98> wSelec<99> wSelec<100> wSelec<101> wSelec<102> wSelec<103> wSelec<104> wSelec<105> wSelec<106> wSelec<107> wSelec<108> wSelec<109> wSelec<110> wSelec<111> wSelec<112> wSelec<113> wSelec<114> wSelec<115> wSelec<116> wSelec<117> wSelec<118> wSelec<119> wSelec<120> wSelec<121> wSelec<122> wSelec<123> wSelec<124> wSelec<125> wSelec<126> wSelec<127> wSelec<128> wSelec<129> wSelec<130> wSelec<131> wSelec<132> wSelec<133> wSelec<134> wSelec<135> wSelec<136> wSelec<137> wSelec<138> wSelec<139> wSelec<140> wSelec<141> wSelec<142> wSelec<143> wSelec<144> wSelec<145> wSelec<146> wSelec<147> wSelec<148> wSelec<149> wSelec<150> wSelec<151> wSelec<152> wSelec<153> wSelec<154> wSelec<155> wSelec<156> wSelec<157> wSelec<158> wSelec<159> wSelec<160> wSelec<161> wSelec<162> wSelec<163> wSelec<164> wSelec<165> wSelec<166> wSelec<167> wSelec<168> wSelec<169> wSelec<170> wSelec<171> wSelec<172> wSelec<173> wSelec<174> wSelec<175> wData<0> wData<1> wData<2> wData<3> wData<4> wData<5> wData<6> wData<7> wData<8> wData<9> wData<10> wData<11> wData<12> wData<13> wData<14> wData<15> wData<16> wData<17> wData<18> wData<19> wData<20> wData<21> wData<22> wData<23> wData<24> wData<25> wData<26> wData<27> wData<28> wData<29> wData<30> wData<31> wData<32> wData<33> wData<34> wData<35> wData<36> wData<37> wData<38> wData<39> wData<40> wData<41> wData<42> wData<43> wData<44> wData<45> wData<46> wData<47> wData<48> wData<49> wData<50> wData<51> wData<52> wData<53> wData<54> wData<55> wData<56> wData<57> wData<58> wData<59> wData<60> wData<61> wData<62> wData<63> wRegs0<0> wRegs0<1> wRegs0<2> wRegs0<3> wRegs0<4> wRegs0<5> wRegs0<6> wRegs0<7> wRegs0<8> wRegs0<9> wRegs0<10> wRegs0<11> wRegs0<12> wRegs0<13> wRegs0<14> wRegs0<15> wRegs0<16> wRegs0<17> wRegs0<18> wRegs0<19> wRegs0<20> wRegs0<21> wRegs0<22> wRegs0<23> wRegs0<24> wRegs0<25> wRegs0<26> wRegs0<27> wRegs0<28> wRegs0<29> wRegs0<30> wRegs0<31> wRegs1<0> wRegs1<1> wRegs1<2> wRegs1<3> wRegs1<4> wRegs1<5> wRegs1<6> wRegs1<7> wRegs1<8> wRegs1<9> wRegs1<10> wRegs1<11> wRegs1<12> wRegs1<13> wRegs1<14> wRegs1<15> wRegs1<16> wRegs1<17> wRegs1<18> wRegs1<19> wRegs1<20> wRegs1<21> wRegs1<22> wRegs1<23> wRegs1<24> wRegs1<25> wRegs1<26> wRegs1<27> wRegs1<28> wRegs1<29> wRegs1<30> wRegs1<31> wRegs2<0> wRegs2<1> wRegs2<2> wRegs2<3> wRegs2<4> wRegs2<5> wRegs2<6> wRegs2<7> wRegs2<8> wRegs2<9> wRegs2<10> wRegs2<11> wRegs2<12> wRegs2<13> wRegs2<14> wRegs2<15> wRegs2<16> wRegs2<17> wRegs2<18> wRegs2<19> wRegs2<20> wRegs2<21> wRegs2<22> wRegs2<23> wRegs2<24> wRegs2<25> wRegs2<26> wRegs2<27> wRegs2<28> wRegs2<29> wRegs2<30> wRegs2<31> wRegs3<0> wRegs3<1> wRegs3<2> wRegs3<3> wRegs3<4> wRegs3<5> wRegs3<6> wRegs3<7> wRegs3<8> wRegs3<9> wRegs3<10> wRegs3<11> wRegs3<12> wRegs3<13> wRegs3<14> wRegs3<15> wRegs3<16> wRegs3<17> wRegs3<18> wRegs3<19> wRegs3<20> wRegs3<21> wRegs3<22> wRegs3<23> wRegs3<24> wRegs3<25> wRegs3<26> wRegs3<27> wRegs3<28> wRegs3<29> wRegs3<30> wRegs3<31> wRegs4<0> wRegs4<1> wRegs4<2> wRegs4<3> wRegs4<4> wRegs4<5> wRegs4<6> wRegs4<7> wRegs4<8> wRegs4<9> wRegs4<10> wRegs4<11> wRegs4<12> wRegs4<13> wRegs4<14> wRegs4<15> wRegs4<16> wRegs4<17> wRegs4<18> wRegs4<19> wRegs4<20> wRegs4<21> wRegs4<22> wRegs4<23> wRegs4<24> wRegs4<25> wRegs4<26> wRegs4<27> wRegs4<28> wRegs4<29> wRegs4<30> wRegs4<31> wRegs5<0> wRegs5<1> wRegs5<2> wRegs5<3> wRegs5<4> wRegs5<5> wRegs5<6> wRegs5<7> wRegs5<8> wRegs5<9> wRegs5<10> wRegs5<11> wRegs5<12> wRegs5<13> wRegs5<14> wRegs5<15> wRegs5<16> wRegs5<17> wRegs5<18> wRegs5<19> wRegs5<20> wRegs5<21> wRegs5<22> wRegs5<23> wRegs5<24> wRegs5<25> wRegs5<26> wRegs5<27> wRegs5<28> wRegs5<29> wRegs5<30> wRegs5<31> wRegs6<0> wRegs6<1> wRegs6<2> wRegs6<3> wRegs6<4> wRegs6<5> wRegs6<6> wRegs6<7> wRegs6<8> wRegs6<9> wRegs6<10> wRegs6<11> wRegs6<12> wRegs6<13> wRegs6<14> wRegs6<15> wRegs6<16> wRegs6<17> wRegs6<18> wRegs6<19> wRegs6<20> wRegs6<21> wRegs6<22> wRegs6<23> wRegs6<24> wRegs6<25> wRegs6<26> wRegs6<27> wRegs6<28> wRegs6<29> wRegs6<30> wRegs6<31> wRegs7<0> wRegs7<1> wRegs7<2> wRegs7<3> wRegs7<4> wRegs7<5> wRegs7<6> wRegs7<7> wRegs7<8> wRegs7<9> wRegs7<10> wRegs7<11> wRegs7<12> wRegs7<13> wRegs7<14> wRegs7<15> wRegs7<16> wRegs7<17> wRegs7<18> wRegs7<19> wRegs7<20> wRegs7<21> wRegs7<22> wRegs7<23> wRegs7<24> wRegs7<25> wRegs7<26> wRegs7<27> wRegs7<28> wRegs7<29> wRegs7<30> wRegs7<31> data_out<0> data_out<1> data_out<2> data_out<3> data_out<4> data_out<5> data_out<6> data_out<7> data_out<8> data_out<9> data_out<10> data_out<11> data_out<12> data_out<13> data_out<14> data_out<15> 
XBUFX2_1 vdd gnd clk clk_hier0_bF$buf5 BUFX2
XBUFX2_2 vdd gnd clk clk_hier0_bF$buf4 BUFX2
XBUFX2_3 vdd gnd clk clk_hier0_bF$buf3 BUFX2
XBUFX2_4 vdd gnd clk clk_hier0_bF$buf2 BUFX2
XBUFX2_5 vdd gnd clk clk_hier0_bF$buf1 BUFX2
XBUFX2_6 vdd gnd clk clk_hier0_bF$buf0 BUFX2
XBUFX2_7 vdd gnd scheduler_block.scheduler.ctr<1> scheduler_block.scheduler.ctr_1_bF$buf5 BUFX2
XBUFX2_8 vdd gnd scheduler_block.scheduler.ctr<1> scheduler_block.scheduler.ctr_1_bF$buf4 BUFX2
XBUFX2_9 vdd gnd scheduler_block.scheduler.ctr<1> scheduler_block.scheduler.ctr_1_bF$buf3 BUFX2
XBUFX2_10 vdd gnd scheduler_block.scheduler.ctr<1> scheduler_block.scheduler.ctr_1_bF$buf2 BUFX2
XBUFX2_11 vdd gnd scheduler_block.scheduler.ctr<1> scheduler_block.scheduler.ctr_1_bF$buf1 BUFX2
XBUFX2_12 vdd gnd scheduler_block.scheduler.ctr<1> scheduler_block.scheduler.ctr_1_bF$buf0 BUFX2
XBUFX4_1 vdd gnd clk_hier0_bF$buf5 clk_bF$buf42 BUFX4
XBUFX4_2 vdd gnd clk_hier0_bF$buf4 clk_bF$buf41 BUFX4
XBUFX4_3 vdd gnd clk_hier0_bF$buf3 clk_bF$buf40 BUFX4
XBUFX4_4 vdd gnd clk_hier0_bF$buf2 clk_bF$buf39 BUFX4
XBUFX4_5 vdd gnd clk_hier0_bF$buf1 clk_bF$buf38 BUFX4
XBUFX4_6 vdd gnd clk_hier0_bF$buf0 clk_bF$buf37 BUFX4
XBUFX4_7 vdd gnd clk_hier0_bF$buf5 clk_bF$buf36 BUFX4
XBUFX4_8 vdd gnd clk_hier0_bF$buf4 clk_bF$buf35 BUFX4
XBUFX4_9 vdd gnd clk_hier0_bF$buf3 clk_bF$buf34 BUFX4
XBUFX4_10 vdd gnd clk_hier0_bF$buf2 clk_bF$buf33 BUFX4
XBUFX4_11 vdd gnd clk_hier0_bF$buf1 clk_bF$buf32 BUFX4
XBUFX4_12 vdd gnd clk_hier0_bF$buf0 clk_bF$buf31 BUFX4
XBUFX4_13 vdd gnd clk_hier0_bF$buf5 clk_bF$buf30 BUFX4
XBUFX4_14 vdd gnd clk_hier0_bF$buf4 clk_bF$buf29 BUFX4
XBUFX4_15 vdd gnd clk_hier0_bF$buf3 clk_bF$buf28 BUFX4
XBUFX4_16 vdd gnd clk_hier0_bF$buf2 clk_bF$buf27 BUFX4
XBUFX4_17 vdd gnd clk_hier0_bF$buf1 clk_bF$buf26 BUFX4
XBUFX4_18 vdd gnd clk_hier0_bF$buf0 clk_bF$buf25 BUFX4
XBUFX4_19 vdd gnd clk_hier0_bF$buf5 clk_bF$buf24 BUFX4
XBUFX4_20 vdd gnd clk_hier0_bF$buf4 clk_bF$buf23 BUFX4
XBUFX4_21 vdd gnd clk_hier0_bF$buf3 clk_bF$buf22 BUFX4
XBUFX4_22 vdd gnd clk_hier0_bF$buf2 clk_bF$buf21 BUFX4
XBUFX4_23 vdd gnd clk_hier0_bF$buf1 clk_bF$buf20 BUFX4
XBUFX4_24 vdd gnd clk_hier0_bF$buf0 clk_bF$buf19 BUFX4
XBUFX4_25 vdd gnd clk_hier0_bF$buf5 clk_bF$buf18 BUFX4
XBUFX4_26 vdd gnd clk_hier0_bF$buf4 clk_bF$buf17 BUFX4
XBUFX4_27 vdd gnd clk_hier0_bF$buf3 clk_bF$buf16 BUFX4
XBUFX4_28 vdd gnd clk_hier0_bF$buf2 clk_bF$buf15 BUFX4
XBUFX4_29 vdd gnd clk_hier0_bF$buf1 clk_bF$buf14 BUFX4
XBUFX4_30 vdd gnd clk_hier0_bF$buf0 clk_bF$buf13 BUFX4
XBUFX4_31 vdd gnd clk_hier0_bF$buf5 clk_bF$buf12 BUFX4
XBUFX4_32 vdd gnd clk_hier0_bF$buf4 clk_bF$buf11 BUFX4
XBUFX4_33 vdd gnd clk_hier0_bF$buf3 clk_bF$buf10 BUFX4
XBUFX4_34 vdd gnd clk_hier0_bF$buf2 clk_bF$buf9 BUFX4
XBUFX4_35 vdd gnd clk_hier0_bF$buf1 clk_bF$buf8 BUFX4
XBUFX4_36 vdd gnd clk_hier0_bF$buf0 clk_bF$buf7 BUFX4
XBUFX4_37 vdd gnd clk_hier0_bF$buf5 clk_bF$buf6 BUFX4
XBUFX4_38 vdd gnd clk_hier0_bF$buf4 clk_bF$buf5 BUFX4
XBUFX4_39 vdd gnd clk_hier0_bF$buf3 clk_bF$buf4 BUFX4
XBUFX4_40 vdd gnd clk_hier0_bF$buf2 clk_bF$buf3 BUFX4
XBUFX4_41 vdd gnd clk_hier0_bF$buf1 clk_bF$buf2 BUFX4
XBUFX4_42 vdd gnd clk_hier0_bF$buf0 clk_bF$buf1 BUFX4
XBUFX4_43 vdd gnd clk_hier0_bF$buf5 clk_bF$buf0 BUFX4
XBUFX2_13 vdd gnd scheduler_block.scheduler.ctr<0> scheduler_block.scheduler.ctr_0_bF$buf5 BUFX2
XBUFX2_14 vdd gnd scheduler_block.scheduler.ctr<0> scheduler_block.scheduler.ctr_0_bF$buf4 BUFX2
XBUFX2_15 vdd gnd scheduler_block.scheduler.ctr<0> scheduler_block.scheduler.ctr_0_bF$buf3 BUFX2
XBUFX2_16 vdd gnd scheduler_block.scheduler.ctr<0> scheduler_block.scheduler.ctr_0_bF$buf2 BUFX2
XBUFX2_17 vdd gnd scheduler_block.scheduler.ctr<0> scheduler_block.scheduler.ctr_0_bF$buf1 BUFX2
XBUFX2_18 vdd gnd scheduler_block.scheduler.ctr<0> scheduler_block.scheduler.ctr_0_bF$buf0 BUFX2
XBUFX2_19 vdd gnd _8701_ _8701__bF$buf3 BUFX2
XBUFX2_20 vdd gnd _8701_ _8701__bF$buf2 BUFX2
XBUFX2_21 vdd gnd _8701_ _8701__bF$buf1 BUFX2
XBUFX2_22 vdd gnd _8701_ _8701__bF$buf0 BUFX2
XBUFX2_23 vdd gnd wBusy wBusy_bF$buf4 BUFX2
XBUFX2_24 vdd gnd wBusy wBusy_bF$buf3 BUFX2
XBUFX2_25 vdd gnd wBusy wBusy_bF$buf2 BUFX2
XBUFX2_26 vdd gnd wBusy wBusy_bF$buf1 BUFX2
XBUFX2_27 vdd gnd wBusy wBusy_bF$buf0 BUFX2
XBUFX2_28 vdd gnd rst rst_bF$buf3 BUFX2
XBUFX2_29 vdd gnd rst rst_bF$buf2 BUFX2
XBUFX2_30 vdd gnd rst rst_bF$buf1 BUFX2
XBUFX2_31 vdd gnd rst rst_bF$buf0 BUFX2
XNAND2X1_1 vdd _994_ gnd input_selector_block.input_selector_i<0>.input_selector_j<0>.input_selector.chunksRegs<46><3> _701_ NAND2X1
XNAND2X1_2 vdd _995_ gnd input_selector_block.input_selector_i<0>.input_selector_j<0>.input_selector.chunksRegs<41><3> _674_ NAND2X1
XNAND2X1_3 vdd _996_ gnd _994_ _995_ NAND2X1
XINVX1_1 input_selector_block.input_selector_i<0>.input_selector_j<0>.input_selector.chunksRegs<52><3> _997_ vdd gnd INVX1
XNAND2X1_4 vdd _998_ gnd input_selector_block.input_selector_i<0>.input_selector_j<0>.input_selector.chunksRegs<40><3> _673_ NAND2X1
XOAI21X1_1 gnd vdd _997_ _626_ _999_ _998_ OAI21X1
XNOR2X1_1 vdd _999_ gnd _1000_ _996_ NOR2X1
XNAND3X1_1 _993_ vdd gnd _990_ _1000_ _1001_ NAND3X1
XNOR3X1_1 vdd gnd _978_ _1001_ _988_ _1002_ NOR3X1
XINVX1_2 input_selector_block.input_selector_i<0>.input_selector_j<0>.input_selector.chunksRegs<57><3> _1003_ vdd gnd INVX1
XNAND2X1_5 vdd _1004_ gnd input_selector_block.input_selector_i<0>.input_selector_j<0>.input_selector.chunksRegs<63><3> _589_ NAND2X1
XOAI21X1_2 gnd vdd _594_ _1003_ _1005_ _1004_ OAI21X1
XAOI21X1_1 gnd vdd input_selector_block.input_selector_i<0>.input_selector_j<0>.input_selector.chunksRegs<1><3> _569_ _1006_ _1005_ AOI21X1
XINVX1_3 input_selector_block.input_selector_i<0>.input_selector_j<0>.input_selector.chunksRegs<58><3> _1007_ vdd gnd INVX1
XINVX1_4 input_selector_block.input_selector_i<0>.input_selector_j<0>.input_selector.chunksRegs<2><3> _1008_ vdd gnd INVX1
XOAI22X1_1 gnd vdd _564_ _1007_ _913_ _1008_ _1009_ OAI22X1
XINVX1_5 input_selector_block.input_selector_i<0>.input_selector_j<0>.input_selector.chunksRegs<37><3> _1010_ vdd gnd INVX1
XNAND2X1_6 vdd _1011_ gnd input_selector_block.input_selector_i<0>.input_selector_j<0>.input_selector.chunksRegs<56><3> _709_ NAND2X1
XOAI21X1_3 gnd vdd _574_ _1010_ _1012_ _1011_ OAI21X1
XNOR2X1_2 vdd _1009_ gnd _1013_ _1012_ NOR2X1
XINVX1_6 input_selector_block.input_selector_i<0>.input_selector_j<0>.input_selector.chunksRegs<49><3> _1014_ vdd gnd INVX1
XINVX1_7 input_selector_block.input_selector_i<0>.input_selector_j<0>.input_selector.chunksRegs<30><3> _1015_ vdd gnd INVX1
XOAI22X1_2 gnd vdd _662_ _1014_ _661_ _1015_ _1016_ OAI22X1
XINVX1_8 input_selector_block.input_selector_i<0>.input_selector_j<0>.input_selector.chunksRegs<28><3> _1017_ vdd gnd INVX1
XNAND2X1_7 vdd _1018_ gnd input_selector_block.input_selector_i<0>.input_selector_j<0>.input_selector.chunksRegs<12><3> _708_ NAND2X1
XOAI21X1_4 gnd vdd _1017_ _644_ _1019_ _1018_ OAI21X1
XNOR2X1_3 vdd _1016_ gnd _1020_ _1019_ NOR2X1
XNAND3X1_2 _1020_ vdd gnd _1006_ _1013_ _1021_ NAND3X1
XAOI22X1_1 gnd vdd _667_ input_selector_block.input_selector_i<0>.input_selector_j<0>.input_selector.chunksRegs<61><3> _1022_ input_selector_block.input_selector_i<0>.input_selector_j<0>.input_selector.chunksRegs<0><3> _666_ AOI22X1
XAOI22X1_2 gnd vdd input_selector_block.input_selector_i<0>.input_selector_j<0>.input_selector.chunksRegs<59><3> _670_ _1023_ _669_ input_selector_block.input_selector_i<0>.input_selector_j<0>.input_selector.chunksRegs<62><3> AOI22X1
XNAND2X1_8 vdd _1024_ gnd _1022_ _1023_ NAND2X1
XAOI22X1_3 gnd vdd _676_ input_selector_block.input_selector_i<0>.input_selector_j<0>.input_selector.chunksRegs<29><3> _1025_ input_selector_block.input_selector_i<0>.input_selector_j<0>.input_selector.chunksRegs<31><3> _677_ AOI22X1
XAOI22X1_4 gnd vdd input_selector_block.input_selector_i<0>.input_selector_j<0>.input_selector.chunksRegs<42><3> _627_ _1026_ _620_ input_selector_block.input_selector_i<0>.input_selector_j<0>.input_selector.chunksRegs<45><3> AOI22X1
XNAND2X1_9 vdd _1027_ gnd _1025_ _1026_ NAND2X1
XNOR2X1_4 vdd _1027_ gnd _1028_ _1024_ NOR2X1
XAOI22X1_5 gnd vdd input_selector_block.input_selector_i<0>.input_selector_j<0>.input_selector.chunksRegs<14><3> _682_ _1029_ _681_ input_selector_block.input_selector_i<0>.input_selector_j<0>.input_selector.chunksRegs<13><3> AOI22X1
XAOI22X1_6 gnd vdd _684_ input_selector_block.input_selector_i<0>.input_selector_j<0>.input_selector.chunksRegs<11><3> _1030_ input_selector_block.input_selector_i<0>.input_selector_j<0>.input_selector.chunksRegs<48><3> _917_ AOI22X1
XNAND2X1_10 vdd _1031_ gnd _1030_ _1029_ NAND2X1
XAOI22X1_7 gnd vdd _689_ input_selector_block.input_selector_i<0>.input_selector_j<0>.input_selector.chunksRegs<34><3> _1032_ input_selector_block.input_selector_i<0>.input_selector_j<0>.input_selector.chunksRegs<15><3> _688_ AOI22X1
XAOI22X1_8 gnd vdd input_selector_block.input_selector_i<0>.input_selector_j<0>.input_selector.chunksRegs<44><3> _692_ _1033_ _691_ input_selector_block.input_selector_i<0>.input_selector_j<0>.input_selector.chunksRegs<32><3> AOI22X1
XNAND2X1_11 vdd _1034_ gnd _1033_ _1032_ NAND2X1
XNOR2X1_5 vdd _1034_ gnd _1035_ _1031_ NOR2X1
XNAND2X1_12 vdd _1036_ gnd _1035_ _1028_ NAND2X1
XAOI22X1_9 gnd vdd _599_ input_selector_block.input_selector_i<0>.input_selector_j<0>.input_selector.chunksRegs<26><3> _1037_ input_selector_block.input_selector_i<0>.input_selector_j<0>.input_selector.chunksRegs<50><3> _698_ AOI22X1
XAOI22X1_10 gnd vdd input_selector_block.input_selector_i<0>.input_selector_j<0>.input_selector.chunksRegs<36><3> _700_ _1038_ _622_ input_selector_block.input_selector_i<0>.input_selector_j<0>.input_selector.chunksRegs<43><3> AOI22X1
XNAND2X1_13 vdd _1039_ gnd _1037_ _1038_ NAND2X1
XAOI22X1_11 gnd vdd _704_ input_selector_block.input_selector_i<0>.input_selector_j<0>.input_selector.chunksRegs<25><3> _1040_ input_selector_block.input_selector_i<0>.input_selector_j<0>.input_selector.chunksRegs<55><3> _706_ AOI22X1
XAOI22X1_12 gnd vdd _685_ input_selector_block.input_selector_i<0>.input_selector_j<0>.input_selector.chunksRegs<18><3> _1041_ input_selector_block.input_selector_i<0>.input_selector_j<0>.input_selector.chunksRegs<4><3> _636_ AOI22X1
XNAND2X1_14 vdd _1042_ gnd _1041_ _1040_ NAND2X1
XNOR2X1_6 vdd _1039_ gnd _1043_ _1042_ NOR2X1
XAOI22X1_13 gnd vdd _714_ input_selector_block.input_selector_i<0>.input_selector_j<0>.input_selector.chunksRegs<53><3> _1044_ input_selector_block.input_selector_i<0>.input_selector_j<0>.input_selector.chunksRegs<8><3> _713_ AOI22X1
XNAND2X1_15 vdd _1045_ gnd input_selector_block.input_selector_i<0>.input_selector_j<0>.input_selector.chunksRegs<54><3> _716_ NAND2X1
XNAND2X1_16 vdd _1046_ gnd input_selector_block.input_selector_i<0>.input_selector_j<0>.input_selector.chunksRegs<33><3> _718_ NAND2X1
XNAND3X1_3 _1046_ vdd gnd _1045_ _1044_ _1047_ NAND3X1
XAOI22X1_14 gnd vdd _721_ input_selector_block.input_selector_i<0>.input_selector_j<0>.input_selector.chunksRegs<9><3> _1048_ input_selector_block.input_selector_i<0>.input_selector_j<0>.input_selector.chunksRegs<60><3> _722_ AOI22X1
XAOI22X1_15 gnd vdd _724_ input_selector_block.input_selector_i<0>.input_selector_j<0>.input_selector.chunksRegs<10><3> _1049_ input_selector_block.input_selector_i<0>.input_selector_j<0>.input_selector.chunksRegs<51><3> _725_ AOI22X1
XNAND2X1_17 vdd _1050_ gnd _1048_ _1049_ NAND2X1
XNOR2X1_7 vdd _1047_ gnd _1051_ _1050_ NOR2X1
XNAND2X1_18 vdd _1052_ gnd _1043_ _1051_ NAND2X1
XNOR3X1_2 vdd gnd _1021_ _1052_ _1036_ _1053_ NOR3X1
XNAND2X1_19 vdd _1054_ gnd wData<59> _755_ NAND2X1
XOAI21X1_5 gnd vdd _539_ wBusy_bF$buf4 _1055_ _1054_ OAI21X1
XNAND2X1_20 vdd _1056_ gnd wData<7> _746_ NAND2X1
XNAND2X1_21 vdd _1057_ gnd wData<55> _756_ NAND2X1
XAOI22X1_16 gnd vdd _748_ wData<31> _1058_ wData<63> _758_ AOI22X1
XNAND3X1_4 _1057_ vdd gnd _1056_ _1058_ _1059_ NAND3X1
XOR2X2_1 _1060_ _1055_ vdd gnd _1059_ OR2X2
XINVX1_9 wData<51> _1061_ vdd gnd INVX1
XNAND2X1_22 vdd _1062_ gnd wData<47> _759_ NAND2X1
XOAI21X1_6 gnd vdd _1061_ _771_ _1063_ _1062_ OAI21X1
XAOI21X1_2 gnd vdd wData<3> _766_ _1064_ _1063_ AOI21X1
XAOI22X1_17 gnd vdd wData<15> _773_ _1065_ _772_ wData<11> AOI22X1
XAOI22X1_18 gnd vdd wData<27> _742_ _1066_ _735_ wData<23> AOI22X1
XAND2X2_1 vdd gnd _1065_ _1066_ _1067_ AND2X2
XNAND2X1_23 vdd _1068_ gnd wData<39> _764_ NAND2X1
XNAND2X1_24 vdd _1069_ gnd wData<43> _762_ NAND2X1
XNAND2X1_25 vdd _1070_ gnd _1068_ _1069_ NAND2X1
XNAND2X1_26 vdd _1071_ gnd wData<19> _738_ NAND2X1
XNAND2X1_27 vdd _1072_ gnd wData<35> _752_ NAND2X1
XNAND2X1_28 vdd _1073_ gnd _1071_ _1072_ NAND2X1
XNOR2X1_8 vdd _1073_ gnd _1074_ _1070_ NOR2X1
XNAND3X1_5 _1064_ vdd gnd _1067_ _1074_ _1075_ NAND3X1
XNOR2X1_9 vdd _1075_ gnd _1076_ _1060_ NOR2X1
XAOI21X1_3 gnd vdd _1002_ _1053_ input_selector_block.input_selector_i<0>.input_selector_j<1>.input_selector.r<3> _1076_ AOI21X1
XINVX1_10 wSelec<22> _1077_ vdd gnd INVX1
XNOR2X1_10 vdd _1077_ gnd _1078_ wBusy_bF$buf3 NOR2X1
XINVX1_11 _1078_ _1079_ vdd gnd INVX1
XINVX1_12 wSelec<32> _1080_ vdd gnd INVX1
XNAND2X1_29 vdd _1081_ gnd wSelec<31> _1080_ NAND2X1
XINVX2_1 vdd gnd _1082_ _1081_ INVX2
XOR2X2_2 _1083_ wSelec<27> vdd gnd wSelec<28> OR2X2
XINVX1_13 wSelec<30> _1084_ vdd gnd INVX1
XNAND2X1_30 vdd _1085_ gnd wSelec<29> _1084_ NAND2X1
XNOR2X1_11 vdd _1085_ gnd _1086_ _1083_ NOR2X1
XAND2X2_2 vdd gnd _1086_ _1082_ _1087_ AND2X2
XAOI21X1_4 gnd vdd input_selector_block.input_selector_i<0>.input_selector_j<0>.input_selector.chunksRegs<20><0> _1087_ _1088_ _1079_ AOI21X1
XINVX1_14 wSelec<28> _1089_ vdd gnd INVX1
XNAND2X1_31 vdd _1090_ gnd wSelec<27> _1089_ NAND2X1
XOR2X2_3 _1091_ wSelec<30> vdd gnd wSelec<29> OR2X2
XNOR2X1_12 vdd _1090_ gnd _1092_ _1091_ NOR2X1
XNAND2X1_32 vdd _1093_ gnd _1082_ _1092_ NAND2X1
XINVX1_15 _1093_ _1094_ vdd gnd INVX1
XINVX1_16 wSelec<27> _1095_ vdd gnd INVX1
XNAND2X1_33 vdd _1096_ gnd wSelec<28> _1095_ NAND2X1
XINVX1_17 wSelec<29> _1097_ vdd gnd INVX1
XNAND2X1_34 vdd _1098_ gnd wSelec<30> _1097_ NAND2X1
XNOR2X1_13 vdd _1098_ gnd _1099_ _1096_ NOR2X1
XNAND2X1_35 vdd _1100_ gnd wSelec<31> wSelec<32> NAND2X1
XINVX1_18 _1100_ _1101_ vdd gnd INVX1
XNAND2X1_36 vdd _1102_ gnd _1101_ _1099_ NAND2X1
XINVX1_19 _1102_ _1103_ vdd gnd INVX1
XAOI22X1_19 gnd vdd input_selector_block.input_selector_i<0>.input_selector_j<0>.input_selector.chunksRegs<58><0> _1103_ _1104_ _1094_ input_selector_block.input_selector_i<0>.input_selector_j<0>.input_selector.chunksRegs<17><0> AOI22X1
XOR2X2_4 _1105_ _1091_ vdd gnd _1090_ OR2X2
XOR2X2_5 _1106_ wSelec<32> vdd gnd wSelec<31> OR2X2
XNOR2X1_14 vdd _1105_ gnd _1107_ _1106_ NOR2X1
XNOR2X1_15 vdd _1090_ gnd _1108_ _1085_ NOR2X1
XINVX1_20 wSelec<31> _1109_ vdd gnd INVX1
XNAND2X1_37 vdd _1110_ gnd wSelec<32> _1109_ NAND2X1
XINVX2_2 vdd gnd _1111_ _1110_ INVX2
XNAND2X1_38 vdd _1112_ gnd _1111_ _1108_ NAND2X1
XINVX1_21 _1112_ _1113_ vdd gnd INVX1
XAOI22X1_20 gnd vdd _1113_ input_selector_block.input_selector_i<0>.input_selector_j<0>.input_selector.chunksRegs<37><0> _1114_ input_selector_block.input_selector_i<0>.input_selector_j<0>.input_selector.chunksRegs<1><0> _1107_ AOI22X1
XNAND3X1_6 _1114_ vdd gnd _1088_ _1104_ _1115_ NAND3X1
XNOR2X1_16 vdd wSelec<27> gnd _1116_ wSelec<28> NOR2X1
XNOR2X1_17 vdd wSelec<30> gnd _1117_ wSelec<29> NOR2X1
XNAND2X1_39 vdd _1118_ gnd _1116_ _1117_ NAND2X1
XNOR2X1_18 vdd _1118_ gnd _1119_ _1081_ NOR2X1
XNAND2X1_40 vdd _1120_ gnd wSelec<28> wSelec<27> NAND2X1
XNOR3X1_3 vdd gnd _1120_ _1081_ _1091_ _1121_ NOR3X1
XAOI22X1_21 gnd vdd _1119_ input_selector_block.input_selector_i<0>.input_selector_j<0>.input_selector.chunksRegs<16><0> _1122_ input_selector_block.input_selector_i<0>.input_selector_j<0>.input_selector.chunksRegs<19><0> _1121_ AOI22X1
XINVX1_22 _1106_ _1123_ vdd gnd INVX1
XNOR2X1_19 vdd _1096_ gnd _1124_ _1091_ NOR2X1
XAND2X2_3 vdd gnd _1124_ _1123_ _1125_ AND2X2
XNAND2X1_41 vdd _1126_ gnd wSelec<29> wSelec<30> NAND2X1
XNOR3X1_4 vdd gnd _1120_ _1126_ _1100_ _1127_ NOR3X1
XAOI22X1_22 gnd vdd _1125_ input_selector_block.input_selector_i<0>.input_selector_j<0>.input_selector.chunksRegs<2><0> _1128_ input_selector_block.input_selector_i<0>.input_selector_j<0>.input_selector.chunksRegs<63><0> _1127_ AOI22X1
XINVX1_23 input_selector_block.input_selector_i<0>.input_selector_j<0>.input_selector.chunksRegs<47><0> _1129_ vdd gnd INVX1
XINVX1_24 input_selector_block.input_selector_i<0>.input_selector_j<0>.input_selector.chunksRegs<57><0> _1130_ vdd gnd INVX1
XNOR2X1_20 vdd _1098_ gnd _1131_ _1090_ NOR2X1
XNAND2X1_42 vdd _1132_ gnd _1101_ _1131_ NAND2X1
XNOR2X1_21 vdd _1126_ gnd _1133_ _1120_ NOR2X1
XNAND2X1_43 vdd _1134_ gnd _1133_ _1111_ NAND2X1
XOAI22X1_3 gnd vdd _1130_ _1132_ _1129_ _1134_ _1135_ OAI22X1
XINVX1_25 input_selector_block.input_selector_i<0>.input_selector_j<0>.input_selector.chunksRegs<39><0> _1136_ vdd gnd INVX1
XNOR3X1_5 vdd gnd _1096_ _1098_ _1081_ _1137_ NOR3X1
XNAND2X1_44 vdd _1138_ gnd input_selector_block.input_selector_i<0>.input_selector_j<0>.input_selector.chunksRegs<26><0> _1137_ NAND2X1
XNOR2X1_22 vdd _1085_ gnd _1139_ _1120_ NOR2X1
XNAND2X1_45 vdd _1140_ gnd _1111_ _1139_ NAND2X1
XOAI21X1_7 gnd vdd _1136_ _1140_ _1141_ _1138_ OAI21X1
XNOR2X1_23 vdd _1141_ gnd _1142_ _1135_ NOR2X1
XNAND3X1_7 _1128_ vdd gnd _1122_ _1142_ _1143_ NAND3X1
XINVX1_26 input_selector_block.input_selector_i<0>.input_selector_j<0>.input_selector.chunksRegs<24><0> _1144_ vdd gnd INVX1
XINVX1_27 input_selector_block.input_selector_i<0>.input_selector_j<0>.input_selector.chunksRegs<22><0> _1145_ vdd gnd INVX1
XNOR2X1_24 vdd _1096_ gnd _1146_ _1085_ NOR2X1
XNAND2X1_46 vdd _1147_ gnd _1082_ _1146_ NAND2X1
XNOR2X1_25 vdd _1098_ gnd _1148_ _1083_ NOR2X1
XNAND2X1_47 vdd _1149_ gnd _1082_ _1148_ NAND2X1
XOAI22X1_4 gnd vdd _1147_ _1145_ _1149_ _1144_ _1150_ OAI22X1
XINVX1_28 input_selector_block.input_selector_i<0>.input_selector_j<0>.input_selector.chunksRegs<35><0> _1151_ vdd gnd INVX1
XINVX1_29 input_selector_block.input_selector_i<0>.input_selector_j<0>.input_selector.chunksRegs<38><0> _1152_ vdd gnd INVX1
XNAND2X1_48 vdd _1153_ gnd _1111_ _1146_ NAND2X1
XNOR2X1_26 vdd _1091_ gnd _1154_ _1120_ NOR2X1
XNAND2X1_49 vdd _1155_ gnd _1111_ _1154_ NAND2X1
XOAI22X1_5 gnd vdd _1152_ _1153_ _1151_ _1155_ _1156_ OAI22X1
XNOR2X1_27 vdd _1150_ gnd _1157_ _1156_ NOR2X1
XNOR3X1_6 vdd gnd _1126_ _1110_ _1090_ _1158_ NOR3X1
XNAND2X1_50 vdd _1159_ gnd input_selector_block.input_selector_i<0>.input_selector_j<0>.input_selector.chunksRegs<45><0> _1158_ NAND2X1
XNOR3X1_7 vdd gnd _1120_ _1110_ _1098_ _1160_ NOR3X1
XNAND2X1_51 vdd _1161_ gnd input_selector_block.input_selector_i<0>.input_selector_j<0>.input_selector.chunksRegs<43><0> _1160_ NAND2X1
XNAND2X1_52 vdd _1162_ gnd _1159_ _1161_ NAND2X1
XINVX1_30 input_selector_block.input_selector_i<0>.input_selector_j<0>.input_selector.chunksRegs<52><0> _1163_ vdd gnd INVX1
XNAND2X1_53 vdd _1164_ gnd _1101_ _1086_ NAND2X1
XNOR3X1_8 vdd gnd _1098_ _1110_ _1096_ _1165_ NOR3X1
XNAND2X1_54 vdd _1166_ gnd input_selector_block.input_selector_i<0>.input_selector_j<0>.input_selector.chunksRegs<42><0> _1165_ NAND2X1
XOAI21X1_8 gnd vdd _1163_ _1164_ _1167_ _1166_ OAI21X1
XNOR2X1_28 vdd _1167_ gnd _1168_ _1162_ NOR2X1
XNAND2X1_55 vdd _1169_ gnd _1157_ _1168_ NAND2X1
XNOR3X1_9 vdd gnd _1169_ _1143_ _1115_ _1170_ NOR3X1
XNAND2X1_56 vdd _1171_ gnd _1082_ _1139_ NAND2X1
XINVX1_31 _1171_ _1172_ vdd gnd INVX1
XINVX1_32 input_selector_block.input_selector_i<0>.input_selector_j<0>.input_selector.chunksRegs<6><0> _1173_ vdd gnd INVX1
XNOR3X1_10 vdd gnd _1106_ _1085_ _1083_ _1174_ NOR3X1
XNAND2X1_57 vdd _1175_ gnd input_selector_block.input_selector_i<0>.input_selector_j<0>.input_selector.chunksRegs<4><0> _1174_ NAND2X1
XNAND2X1_58 vdd _1176_ gnd _1123_ _1146_ NAND2X1
XOAI21X1_9 gnd vdd _1176_ _1173_ _1177_ _1175_ OAI21X1
XAOI21X1_5 gnd vdd input_selector_block.input_selector_i<0>.input_selector_j<0>.input_selector.chunksRegs<23><0> _1172_ _1178_ _1177_ AOI21X1
XINVX1_33 input_selector_block.input_selector_i<0>.input_selector_j<0>.input_selector.chunksRegs<5><0> _1179_ vdd gnd INVX1
XINVX1_34 input_selector_block.input_selector_i<0>.input_selector_j<0>.input_selector.chunksRegs<28><0> _1180_ vdd gnd INVX1
XNOR2X1_29 vdd _1083_ gnd _1181_ _1126_ NOR2X1
XNAND2X1_59 vdd _1182_ gnd _1082_ _1181_ NAND2X1
XNAND2X1_60 vdd _1183_ gnd _1123_ _1108_ NAND2X1
XOAI22X1_6 gnd vdd _1179_ _1183_ _1180_ _1182_ _1184_ OAI22X1
XINVX1_35 input_selector_block.input_selector_i<0>.input_selector_j<0>.input_selector.chunksRegs<3><0> _1185_ vdd gnd INVX1
XINVX1_36 input_selector_block.input_selector_i<0>.input_selector_j<0>.input_selector.chunksRegs<21><0> _1186_ vdd gnd INVX1
XNAND2X1_61 vdd _1187_ gnd _1082_ _1108_ NAND2X1
XNAND2X1_62 vdd _1188_ gnd _1123_ _1154_ NAND2X1
XOAI22X1_7 gnd vdd _1186_ _1187_ _1185_ _1188_ _1189_ OAI22X1
XNOR2X1_30 vdd _1189_ gnd _1190_ _1184_ NOR2X1
XINVX1_37 input_selector_block.input_selector_i<0>.input_selector_j<0>.input_selector.chunksRegs<48><0> _1191_ vdd gnd INVX1
XNOR3X1_11 vdd gnd _1120_ _1085_ _1106_ _1192_ NOR3X1
XNAND2X1_63 vdd _1193_ gnd input_selector_block.input_selector_i<0>.input_selector_j<0>.input_selector.chunksRegs<7><0> _1192_ NAND2X1
XOR2X2_6 _1194_ _1100_ vdd gnd _1118_ OR2X2
XOAI21X1_10 gnd vdd _1191_ _1194_ _1195_ _1193_ OAI21X1
XINVX1_38 input_selector_block.input_selector_i<0>.input_selector_j<0>.input_selector.chunksRegs<49><0> _1196_ vdd gnd INVX1
XINVX1_39 input_selector_block.input_selector_i<0>.input_selector_j<0>.input_selector.chunksRegs<30><0> _1197_ vdd gnd INVX1
XNOR2X1_31 vdd _1096_ gnd _1198_ _1126_ NOR2X1
XNAND2X1_64 vdd _1199_ gnd _1082_ _1198_ NAND2X1
XNAND2X1_65 vdd _1200_ gnd _1101_ _1092_ NAND2X1
XOAI22X1_8 gnd vdd _1200_ _1196_ _1199_ _1197_ _1201_ OAI22X1
XNOR2X1_32 vdd _1201_ gnd _1202_ _1195_ NOR2X1
XNAND3X1_8 _1202_ vdd gnd _1178_ _1190_ _1203_ NAND3X1
XNOR3X1_12 vdd gnd _1091_ _1106_ _1083_ _1204_ NOR3X1
XNOR3X1_13 vdd gnd _1126_ _1090_ _1100_ _1205_ NOR3X1
XAOI22X1_23 gnd vdd _1205_ input_selector_block.input_selector_i<0>.input_selector_j<0>.input_selector.chunksRegs<61><0> _1206_ input_selector_block.input_selector_i<0>.input_selector_j<0>.input_selector.chunksRegs<0><0> _1204_ AOI22X1
XNOR3X1_14 vdd gnd _1126_ _1096_ _1100_ _1207_ NOR3X1
XNOR3X1_15 vdd gnd _1120_ _1098_ _1100_ _1208_ NOR3X1
XAOI22X1_24 gnd vdd input_selector_block.input_selector_i<0>.input_selector_j<0>.input_selector.chunksRegs<59><0> _1208_ _1209_ _1207_ input_selector_block.input_selector_i<0>.input_selector_j<0>.input_selector.chunksRegs<62><0> AOI22X1
XNAND2X1_66 vdd _1210_ gnd _1206_ _1209_ NAND2X1
XNOR3X1_16 vdd gnd _1083_ _1110_ _1098_ _1211_ NOR3X1
XNOR3X1_17 vdd gnd _1098_ _1110_ _1090_ _1212_ NOR3X1
XAOI22X1_25 gnd vdd input_selector_block.input_selector_i<0>.input_selector_j<0>.input_selector.chunksRegs<41><0> _1212_ _1213_ _1211_ input_selector_block.input_selector_i<0>.input_selector_j<0>.input_selector.chunksRegs<40><0> AOI22X1
XNOR3X1_18 vdd gnd _1126_ _1090_ _1081_ _1214_ NOR3X1
XNOR3X1_19 vdd gnd _1126_ _1081_ _1120_ _1215_ NOR3X1
XAOI22X1_26 gnd vdd _1214_ input_selector_block.input_selector_i<0>.input_selector_j<0>.input_selector.chunksRegs<29><0> _1216_ input_selector_block.input_selector_i<0>.input_selector_j<0>.input_selector.chunksRegs<31><0> _1215_ AOI22X1
XNAND2X1_67 vdd _1217_ gnd _1216_ _1213_ NAND2X1
XNOR2X1_33 vdd _1217_ gnd _1218_ _1210_ NOR2X1
XNOR3X1_20 vdd gnd _1126_ _1090_ _1106_ _1219_ NOR3X1
XNOR3X1_21 vdd gnd _1126_ _1096_ _1106_ _1220_ NOR3X1
XAOI22X1_27 gnd vdd input_selector_block.input_selector_i<0>.input_selector_j<0>.input_selector.chunksRegs<14><0> _1220_ _1221_ _1219_ input_selector_block.input_selector_i<0>.input_selector_j<0>.input_selector.chunksRegs<13><0> AOI22X1
XNOR3X1_22 vdd gnd _1120_ _1098_ _1106_ _1222_ NOR3X1
XNOR3X1_23 vdd gnd _1091_ _1096_ _1081_ _1223_ NOR3X1
XAOI22X1_28 gnd vdd _1223_ input_selector_block.input_selector_i<0>.input_selector_j<0>.input_selector.chunksRegs<18><0> _1224_ input_selector_block.input_selector_i<0>.input_selector_j<0>.input_selector.chunksRegs<11><0> _1222_ AOI22X1
XNAND2X1_68 vdd _1225_ gnd _1221_ _1224_ NAND2X1
XNOR3X1_24 vdd gnd _1126_ _1106_ _1120_ _1226_ NOR3X1
XNOR3X1_25 vdd gnd _1091_ _1110_ _1096_ _1227_ NOR3X1